omf/scratch/glmSuperModel/runningDir/superModelTinyModified.glm
clock {
	timezone PST+8PDT;
	starttime '2009-01-01 12:00:00';
	stoptime '2009-01-01 15:00:00';
};

#set profiler=1;
module tape;
module powerflow {
	solver_method NR;
	default_maximum_voltage_error 1e-9;
};

module assert;
object regulator {
	phases ABCN;
	from R1-12-47-3_node_53;
	name R1-12-47-3_reg_1;
	to R1-12-47-3_meter_22;
	configuration feeder_reg_cfg;
};

object recorder {
	interval 60;
	name recorder_999;
	parent R1-12-47-3_reg_1;
	limit 1440;
	file "superModelTiny.regOutput.csv";
	property tap_A,tap_B,tap_C,power_in_A.real,power_in_A.imag,power_in_B.real,power_in_B.imag,power_in_C.real,power_in_C.imag,power_in.real,power_in.imag;
};

object regulator_configuration {
	Control OUTPUT_VOLTAGE;
	raise_taps 16;
	name feeder_reg_cfg;
	band_center 7200.0;
	tap_pos_A 0;
	tap_pos_B 0;
	connect_type WYE_WYE;
	time_delay 30;
	regulation 0.10;
	lower_taps 16;
	tap_pos_C 0;
	band_width 120;
};

object fuse {
	status CLOSED;
	phases AN;
	from R1-12-47-3_node_19;
	name R1-12-47-3_fuse_1;
	current_limit 10000;
	to R1-12-47-3_node_20;
	mean_replacement_time 1000;
};

object fuse {
	status CLOSED;
	phases BCN;
	from R1-12-47-3_node_21;
	name R1-12-47-3_fuse_2;
	current_limit 100000;
	to R1-12-47-3_node_23;
	mean_replacement_time 1000;
};

object fuse {
	status CLOSED;
	phases AN;
	from R1-12-47-3_node_27;
	name R1-12-47-3_fuse_3;
	current_limit 400000;
	to R1-12-47-3_node_28;
	mean_replacement_time 1000;
};

object fuse {
	status CLOSED;
	phases AN;
	from R1-12-47-3_node_32;
	name R1-12-47-3_fuse_4;
	current_limit 100000;
	to R1-12-47-3_node_33;
	mean_replacement_time 1000;
};

object fuse {
	status CLOSED;
	phases ABCN;
	from R1-12-47-3_node_32;
	name R1-12-47-3_fuse_5;
	current_limit 80000;
	to R1-12-47-3_node_35;
	mean_replacement_time 1000;
};

object fuse {
	status CLOSED;
	phases BN;
	from R1-12-47-3_node_36;
	name R1-12-47-3_fuse_6;
	current_limit 400000;
	to R1-12-47-3_node_37;
	mean_replacement_time 1000;
};

object fuse {
	status CLOSED;
	phases BN;
	from R1-12-47-3_node_36;
	name R1-12-47-3_fuse_7;
	current_limit 400000;
	to R1-12-47-3_node_40;
	mean_replacement_time 1000;
};

object line_configuration {
	name line_configuration_17;
	spacing line_spacing_9;
	conductor_N underground_line_conductor_2;
	conductor_A underground_line_conductor_2;
	conductor_C underground_line_conductor_2;
	conductor_B underground_line_conductor_2;
};

object line_configuration {
	name line_configuration_18;
	spacing line_spacing_10;
	conductor_N overhead_line_conductor_3;
	conductor_A overhead_line_conductor_3;
	conductor_C overhead_line_conductor_3;
	conductor_B overhead_line_conductor_3;
};

object line_configuration {
	name line_configuration_19;
	spacing line_spacing_11;
	conductor_N overhead_line_conductor_4;
	conductor_A overhead_line_conductor_4;
	conductor_C overhead_line_conductor_4;
};

object line_configuration {
	conductor_N overhead_line_conductor_5;
	spacing line_spacing_12;
	name line_configuration_20;
	conductor_C overhead_line_conductor_5;
};

object line_configuration {
	name line_configuration_21;
	spacing line_spacing_10;
	conductor_N overhead_line_conductor_4;
	conductor_A overhead_line_conductor_4;
	conductor_C overhead_line_conductor_4;
	conductor_B overhead_line_conductor_4;
};

object line_configuration {
	name line_configuration_22;
	spacing line_spacing_11;
	conductor_N overhead_line_conductor_5;
	conductor_A overhead_line_conductor_5;
	conductor_C overhead_line_conductor_5;
};

object line_configuration {
	conductor_N overhead_line_conductor_4;
	spacing line_spacing_12;
	name line_configuration_23;
	conductor_C overhead_line_conductor_4;
};

object line_configuration {
	name line_configuration_24;
	spacing line_spacing_10;
	conductor_N overhead_line_conductor_6;
	conductor_A overhead_line_conductor_6;
	conductor_C overhead_line_conductor_6;
	conductor_B overhead_line_conductor_6;
};

object line_configuration {
	spacing line_spacing_13;
	conductor_N overhead_line_conductor_6;
	conductor_A overhead_line_conductor_6;
	name line_configuration_25;
};

object line_configuration {
	name line_configuration_26;
	spacing line_spacing_10;
	conductor_N overhead_line_conductor_7;
	conductor_A overhead_line_conductor_7;
	conductor_C overhead_line_conductor_7;
	conductor_B overhead_line_conductor_7;
};

object line_configuration {
	name line_configuration_27;
	spacing line_spacing_10;
	conductor_N overhead_line_conductor_5;
	conductor_A overhead_line_conductor_5;
	conductor_C overhead_line_conductor_5;
	conductor_B overhead_line_conductor_5;
};

object line_configuration {
	name line_configuration_28;
	spacing line_spacing_14;
	conductor_N underground_line_conductor_8;
	conductor_C underground_line_conductor_8;
	conductor_B underground_line_conductor_8;
};

object line_configuration {
	conductor_N underground_line_conductor_8;
	spacing line_spacing_15;
	name line_configuration_29;
	conductor_B underground_line_conductor_8;
};

object line_configuration {
	name line_configuration_30;
	spacing line_spacing_16;
	conductor_N overhead_line_conductor_5;
	conductor_C overhead_line_conductor_5;
	conductor_B overhead_line_conductor_5;
};

object line_configuration {
	spacing line_spacing_13;
	conductor_N overhead_line_conductor_4;
	conductor_A overhead_line_conductor_4;
	name line_configuration_31;
};

object line_configuration {
	spacing line_spacing_13;
	conductor_N overhead_line_conductor_5;
	conductor_A overhead_line_conductor_5;
	name line_configuration_32;
};

object line_configuration {
	name line_configuration_33;
	spacing line_spacing_9;
	conductor_N underground_line_conductor_8;
	conductor_A underground_line_conductor_8;
	conductor_C underground_line_conductor_8;
	conductor_B underground_line_conductor_8;
};

object line_spacing {
	distance_BC 0.0 in;
	name line_spacing_9;
	distance_CN 0.0 in;
	distance_AN 0.0 in;
	distance_AB 0.0 in;
	distance_BN 0.0 in;
	distance_AC 0.0 in;
};

object line_spacing {
	distance_BC 57.6 in;
	name line_spacing_10;
	distance_CN 84.0 in;
	distance_AN 84.0 in;
	distance_AB 57.6 in;
	distance_BN 84.0 in;
	distance_AC 57.6 in;
};

object line_spacing {
	distance_CN 84.0 in;
	distance_AN 84.0 in;
	name line_spacing_11;
	distance_AC 57.6 in;
};

object line_spacing {
	distance_CN 84.0 in;
	name line_spacing_12;
};

object line_spacing {
	distance_AN 84.0 in;
	name line_spacing_13;
};

object line_spacing {
	distance_CN 0.0 in;
	distance_BC 0.0 in;
	name line_spacing_14;
	distance_BN 0.0 in;
};

object line_spacing {
	name line_spacing_15;
	distance_BN 0.0 in;
};

object line_spacing {
	distance_CN 84.0 in;
	distance_BC 57.6 in;
	name line_spacing_16;
	distance_BN 84.0 in;
};

object load {
	phases CN;
	load_class C;
	name R1-12-47-3_load_1;
	parent R1-12-47-3_meter_1;
	voltage_C -3600+6235j;
	constant_power_C 54848.3315+1161.1672j;
	nominal_voltage 7200;
};

object load {
	phases ABCN;
	load_class C;
	name R1-12-47-3_load_2;
	parent R1-12-47-3_meter_2;
	voltage_B -3600-6235j;
	voltage_C -3600+6235j;
	voltage_A 7200+0.0j;
	constant_power_C 16454.4994+348.3502j;
	constant_power_B 5945.0578+187.089j;
	constant_power_A 18397.9491+344.1439j;
	nominal_voltage 7200;
};

object load {
	phases ACN;
	load_class C;
	name R1-12-47-3_load_3;
	parent R1-12-47-3_meter_3;
	voltage_C -3600+6235j;
	voltage_A 7200+0.0j;
	constant_power_C 27424.1657+580.5836j;
	constant_power_A 0+0j;
	nominal_voltage 7200;
};

object load {
	phases CN;
	load_class C;
	name R1-12-47-3_load_4;
	parent R1-12-47-3_meter_4;
	voltage_C -3600+6235j;
	constant_power_C 54848.3315+1161.1672j;
	nominal_voltage 7200;
};

object load {
	phases CN;
	load_class C;
	name R1-12-47-3_load_5;
	parent R1-12-47-3_meter_5;
	voltage_C -3600+6235j;
	constant_power_C 54848.3315+1161.1672j;
	nominal_voltage 7200;
};

object load {
	phases ABCN;
	load_class C;
	name R1-12-47-3_load_6;
	parent R1-12-47-3_meter_6;
	voltage_B -3600-6235j;
	voltage_C -3600+6235j;
	voltage_A 7200+0.0j;
	constant_power_C 82272.4972+1741.7508j;
	constant_power_B 0+0j;
	constant_power_A 0+0j;
	nominal_voltage 7200;
};

object load {
	phases AN;
	load_class C;
	name R1-12-47-3_load_7;
	parent R1-12-47-3_meter_7;
	voltage_A 7200+0.0j;
	nominal_voltage 7200;
	constant_power_A 42928.5478+803.0025j;
};

object load {
	phases ABCN;
	load_class C;
	name R1-12-47-3_load_8;
	parent R1-12-47-3_meter_8;
	voltage_B -3600-6235j;
	voltage_C -3600+6235j;
	voltage_A 7200+0.0j;
	constant_power_C 27424.1657+580.5836j;
	constant_power_B 9908.4297+311.8149j;
	constant_power_A 30663.2485+573.5732j;
	nominal_voltage 7200;
};

object load {
	phases BN;
	load_class C;
	name R1-12-47-3_load_9;
	parent R1-12-47-3_meter_9;
	voltage_B -3600-6235j;
	nominal_voltage 7200;
	constant_power_B 29725.289+935.4448j;
};

object load {
	phases ABCN;
	load_class C;
	name R1-12-47-3_load_10;
	parent R1-12-47-3_meter_10;
	voltage_B -3600-6235j;
	voltage_C -3600+6235j;
	voltage_A 7200+0.0j;
	constant_power_C 54848.3315+1161.1672j;
	constant_power_B 9908.4297+311.8149j;
	constant_power_A 0+0j;
	nominal_voltage 7200;
};

object load {
	phases AN;
	load_class C;
	name R1-12-47-3_load_11;
	parent R1-12-47-3_meter_11;
	voltage_A 7200+0.0j;
	nominal_voltage 7200;
	constant_power_A 110387.6944+2064.8636j;
};

object load {
	phases AN;
	load_class C;
	name R1-12-47-3_load_12;
	parent R1-12-47-3_meter_12;
	voltage_A 7200+0.0j;
	nominal_voltage 7200;
	constant_power_A 30663.2485+573.5732j;
};

object load {
	phases AN;
	load_class C;
	name R1-12-47-3_load_13;
	parent R1-12-47-3_meter_13;
	voltage_A 7200+0.0j;
	nominal_voltage 7200;
	constant_power_A 30663.2485+573.5732j;
};

object load {
	phases AN;
	load_class C;
	name R1-12-47-3_load_14;
	parent R1-12-47-3_meter_14;
	voltage_A 7200+0.0j;
	nominal_voltage 7200;
	constant_power_A 30663.2485+573.5732j;
};

object load {
	phases BN;
	load_class C;
	name R1-12-47-3_load_15;
	parent R1-12-47-3_meter_15;
	voltage_B -3600-6235j;
	nominal_voltage 7200;
	constant_power_B 19800+600j;
};

object load {
	phases BN;
	load_class C;
	name R1-12-47-3_load_16;
	parent R1-12-47-3_meter_16;
	voltage_B -3600-6235j;
	nominal_voltage 7200;
	constant_power_B 66200+2100j;
};

object load {
	phases BN;
	load_class C;
	name R1-12-47-3_load_17;
	parent R1-12-47-3_meter_17;
	voltage_B -3600-6235j;
	nominal_voltage 7200;
	constant_power_B 19800+600j;
};

object load {
	phases ABCN;
	load_class C;
	name R1-12-47-3_load_18;
	parent R1-12-47-3_meter_18;
	voltage_B -3600-6235j;
	voltage_C -3600+6235j;
	voltage_A 7200+0.0j;
	constant_power_C 54848.3315+1161.1672j;
	constant_power_B 19816.8593+623.6299j;
	constant_power_A 61326.4969+1147.1465j;
	nominal_voltage 7200;
};

object load {
	phases AN;
	load_class C;
	name R1-12-47-3_load_19;
	parent R1-12-47-3_meter_19;
	voltage_A 7200+0.0j;
	nominal_voltage 7200;
	constant_power_A 30663.2485+573.5732j;
};

object load {
	phases ABCN;
	load_class C;
	name R1-12-47-3_load_20;
	parent R1-12-47-3_meter_20;
	voltage_B -3600-6235j;
	voltage_C -3600+6235j;
	voltage_A 7200+0.0j;
	constant_power_C 41136.2486+870.8754j;
	constant_power_B 14862.6445+467.7224j;
	constant_power_A 45994.8727+860.3598j;
	nominal_voltage 7200;
};

object load {
	phases ABCN;
	load_class C;
	name R1-12-47-3_load_21;
	parent R1-12-47-3_meter_21;
	voltage_B -3600-6235j;
	voltage_C -3600+6235j;
	voltage_A 7200+0.0j;
	constant_power_C 27424.1657+580.5836j;
	constant_power_B 9908.4297+311.8149j;
	constant_power_A 30663.2485+573.5732j;
	nominal_voltage 7200;
};

object meter {
	voltage_C -3600+6235j;
	phases CN;
	nominal_voltage 7200;
	name R1-12-47-3_meter_1;
};

object meter {
	phases ABCN;
	name R1-12-47-3_meter_2;
	voltage_B -3600-6235j;
	voltage_C -3600+6235j;
	voltage_A 7200+0.0j;
	nominal_voltage 7200;
};

object meter {
	phases ACN;
	name R1-12-47-3_meter_3;
	voltage_C -3600+6235j;
	voltage_A 7200+0.0j;
	nominal_voltage 7200;
};

object meter {
	voltage_C -3600+6235j;
	phases CN;
	nominal_voltage 7200;
	name R1-12-47-3_meter_4;
};

object meter {
	voltage_C -3600+6235j;
	phases CN;
	nominal_voltage 7200;
	name R1-12-47-3_meter_5;
};

object meter {
	phases ABCN;
	name R1-12-47-3_meter_6;
	voltage_B -3600-6235j;
	voltage_C -3600+6235j;
	voltage_A 7200+0.0j;
	nominal_voltage 7200;
};

object meter {
	phases AN;
	nominal_voltage 7200;
	name R1-12-47-3_meter_7;
	voltage_A 7200+0.0j;
};

object meter {
	phases ABCN;
	name R1-12-47-3_meter_8;
	voltage_B -3600-6235j;
	voltage_C -3600+6235j;
	voltage_A 7200+0.0j;
	nominal_voltage 7200;
};

object meter {
	voltage_B -3600-6235j;
	phases BN;
	nominal_voltage 7200;
	name R1-12-47-3_meter_9;
};

object meter {
	phases ABCN;
	name R1-12-47-3_meter_10;
	voltage_B -3600-6235j;
	voltage_C -3600+6235j;
	voltage_A 7200+0.0j;
	nominal_voltage 7200;
};

object meter {
	phases AN;
	nominal_voltage 7200;
	name R1-12-47-3_meter_11;
	voltage_A 7200+0.0j;
};

object meter {
	phases AN;
	nominal_voltage 7200;
	name R1-12-47-3_meter_12;
	voltage_A 7200+0.0j;
};

object meter {
	phases AN;
	nominal_voltage 7200;
	name R1-12-47-3_meter_13;
	voltage_A 7200+0.0j;
};

object meter {
	phases AN;
	nominal_voltage 7200;
	name R1-12-47-3_meter_14;
	voltage_A 7200+0.0j;
};

object meter {
	voltage_B -3600-6235j;
	phases BN;
	nominal_voltage 7200;
	name R1-12-47-3_meter_15;
};

object meter {
	voltage_B -3600-6235j;
	phases BN;
	nominal_voltage 7200;
	name R1-12-47-3_meter_16;
};

object meter {
	voltage_B -3600-6235j;
	phases BN;
	nominal_voltage 7200;
	name R1-12-47-3_meter_17;
};

object meter {
	phases ABCN;
	name R1-12-47-3_meter_18;
	voltage_B -3600-6235j;
	voltage_C -3600+6235j;
	voltage_A 7200+0.0j;
	nominal_voltage 7200;
};

object meter {
	phases AN;
	nominal_voltage 7200;
	name R1-12-47-3_meter_19;
	voltage_A 7200+0.0j;
};

object meter {
	phases ABCN;
	name R1-12-47-3_meter_20;
	voltage_B -3600-6235j;
	voltage_C -3600+6235j;
	voltage_A 7200+0.0j;
	nominal_voltage 7200;
};

object meter {
	phases ABCN;
	name R1-12-47-3_meter_21;
	voltage_B -3600-6235j;
	voltage_C -3600+6235j;
	voltage_A 7200+0.0j;
	nominal_voltage 7200;
};

object meter {
	phases ABCN;
	name R1-12-47-3_meter_22;
	voltage_B -3600-6235j;
	voltage_C -3600+6235j;
	voltage_A 7200+0.0j;
	nominal_voltage 7200;
};

object node {
	phases ABCN;
	name R1-12-47-3_node_1;
	voltage_B -3600-6235j;
	voltage_C -3600+6235j;
	voltage_A 7200+0.0j;
	nominal_voltage 7200;
};

object node {
	phases ABCN;
	name R1-12-47-3_node_2;
	voltage_B -3600-6235j;
	voltage_C -3600+6235j;
	voltage_A 7200+0.0j;
	nominal_voltage 7200;
};

object node {
	phases ABCN;
	name R1-12-47-3_node_3;
	voltage_B -3600-6235j;
	voltage_C -3600+6235j;
	voltage_A 7200+0.0j;
	nominal_voltage 7200;
};

object node {
	phases ABCN;
	name R1-12-47-3_node_4;
	voltage_B -3600-6235j;
	voltage_C -3600+6235j;
	voltage_A 7200+0.0j;
	nominal_voltage 7200;
};

object node {
	phases ACN;
	name R1-12-47-3_node_5;
	voltage_C -3600+6235j;
	voltage_A 7200+0.0j;
	nominal_voltage 7200;
};

object node {
	voltage_C -3600+6235j;
	phases CN;
	nominal_voltage 7200;
	name R1-12-47-3_node_6;
};

object node {
	phases ABCN;
	name R1-12-47-3_node_7;
	voltage_B -3600-6235j;
	voltage_C -3600+6235j;
	voltage_A 7200+0.0j;
	nominal_voltage 7200;
};

object node {
	phases ABCN;
	name R1-12-47-3_node_8;
	voltage_B -3600-6235j;
	voltage_C -3600+6235j;
	voltage_A 7200+0.0j;
	nominal_voltage 7200;
};

object node {
	phases ABCN;
	name R1-12-47-3_node_9;
	voltage_B -3600-6235j;
	voltage_C -3600+6235j;
	voltage_A 7200+0.0j;
	nominal_voltage 7200;
};

object node {
	phases ABCN;
	name R1-12-47-3_node_10;
	voltage_B -3600-6235j;
	voltage_C -3600+6235j;
	voltage_A 7200+0.0j;
	nominal_voltage 7200;
};

object node {
	phases ACN;
	name R1-12-47-3_node_11;
	voltage_C -3600+6235j;
	voltage_A 7200+0.0j;
	nominal_voltage 7200;
};

object node {
	voltage_C -3600+6235j;
	phases CN;
	nominal_voltage 7200;
	name R1-12-47-3_node_12;
};

object node {
	phases ACN;
	name R1-12-47-3_node_13;
	voltage_C -3600+6235j;
	voltage_A 7200+0.0j;
	nominal_voltage 7200;
};

object node {
	voltage_C -3600+6235j;
	phases CN;
	nominal_voltage 7200;
	name R1-12-47-3_node_14;
};

object node {
	phases ABCN;
	name R1-12-47-3_node_15;
	voltage_B -3600-6235j;
	voltage_C -3600+6235j;
	voltage_A 7200+0.0j;
	nominal_voltage 7200;
};

object node {
	phases ABCN;
	name R1-12-47-3_node_16;
	voltage_B -3600-6235j;
	voltage_C -3600+6235j;
	voltage_A 7200+0.0j;
	nominal_voltage 7200;
};

object node {
	phases ABCN;
	name R1-12-47-3_node_17;
	voltage_B -3600-6235j;
	voltage_C -3600+6235j;
	voltage_A 7200+0.0j;
	nominal_voltage 7200;
};

object node {
	phases ABCN;
	name R1-12-47-3_node_18;
	voltage_B -3600-6235j;
	voltage_C -3600+6235j;
	voltage_A 7200+0.0j;
	nominal_voltage 7200;
};

object node {
	phases ABCN;
	name R1-12-47-3_node_19;
	voltage_B -3600-6235j;
	voltage_C -3600+6235j;
	voltage_A 7200+0.0j;
	nominal_voltage 7200;
};

object node {
	phases AN;
	nominal_voltage 7200;
	name R1-12-47-3_node_20;
	voltage_A 7200+0.0j;
};

object node {
	phases ABCN;
	name R1-12-47-3_node_21;
	voltage_B -3600-6235j;
	voltage_C -3600+6235j;
	voltage_A 7200+0.0j;
	nominal_voltage 7200;
};

object node {
	phases ABCN;
	name R1-12-47-3_node_22;
	voltage_B -3600-6235j;
	voltage_C -3600+6235j;
	voltage_A 7200+0.0j;
	nominal_voltage 7200;
};

object node {
	phases BCN;
	name R1-12-47-3_node_23;
	voltage_B -3600-6235j;
	voltage_C -3600+6235j;
	nominal_voltage 7200;
};

object node {
	voltage_B -3600-6235j;
	phases BN;
	nominal_voltage 7200;
	name R1-12-47-3_node_24;
};

object node {
	phases BCN;
	name R1-12-47-3_node_25;
	voltage_B -3600-6235j;
	voltage_C -3600+6235j;
	nominal_voltage 7200;
};

object node {
	phases BCN;
	name R1-12-47-3_node_26;
	voltage_B -3600-6235j;
	voltage_C -3600+6235j;
	nominal_voltage 7200;
};

object node {
	phases ABCN;
	name R1-12-47-3_node_27;
	voltage_B -3600-6235j;
	voltage_C -3600+6235j;
	voltage_A 7200+0.0j;
	nominal_voltage 7200;
};

object node {
	phases AN;
	nominal_voltage 7200;
	name R1-12-47-3_node_28;
	voltage_A 7200+0.0j;
};

object node {
	phases AN;
	nominal_voltage 7200;
	name R1-12-47-3_node_29;
	voltage_A 7200+0.0j;
};

object node {
	phases AN;
	nominal_voltage 7200;
	name R1-12-47-3_node_30;
	voltage_A 7200+0.0j;
};

object node {
	phases ABCN;
	name R1-12-47-3_node_31;
	voltage_B -3600-6235j;
	voltage_C -3600+6235j;
	voltage_A 7200+0.0j;
	nominal_voltage 7200;
};

object node {
	phases ABCN;
	name R1-12-47-3_node_32;
	voltage_B -3600-6235j;
	voltage_C -3600+6235j;
	voltage_A 7200+0.0j;
	nominal_voltage 7200;
};

object node {
	phases AN;
	nominal_voltage 7200;
	name R1-12-47-3_node_33;
	voltage_A 7200+0.0j;
};

object node {
	phases ABCN;
	name R1-12-47-3_node_34;
	voltage_B -3600-6235j;
	voltage_C -3600+6235j;
	voltage_A 7200+0.0j;
	nominal_voltage 7200;
};

object node {
	phases ABCN;
	name R1-12-47-3_node_35;
	voltage_B -3600-6235j;
	voltage_C -3600+6235j;
	voltage_A 7200+0.0j;
	nominal_voltage 7200;
};

object node {
	phases ABCN;
	name R1-12-47-3_node_36;
	voltage_B -3600-6235j;
	voltage_C -3600+6235j;
	voltage_A 7200+0.0j;
	nominal_voltage 7200;
};

object node {
	voltage_B -3600-6235j;
	phases BN;
	nominal_voltage 7200;
	name R1-12-47-3_node_37;
};

object node {
	voltage_B -3600-6235j;
	phases BN;
	nominal_voltage 7200;
	name R1-12-47-3_node_38;
};

object node {
	voltage_B -3600-6235j;
	phases BN;
	nominal_voltage 7200;
	name R1-12-47-3_node_39;
};

object node {
	voltage_B -3600-6235j;
	phases BN;
	nominal_voltage 7200;
	name R1-12-47-3_node_40;
};

object node {
	phases ABCN;
	name R1-12-47-3_node_41;
	voltage_B -3600-6235j;
	voltage_C -3600+6235j;
	voltage_A 7200+0.0j;
	nominal_voltage 7200;
};

object node {
	phases ABCN;
	name R1-12-47-3_node_42;
	voltage_B -3600-6235j;
	voltage_C -3600+6235j;
	voltage_A 7200+0.0j;
	nominal_voltage 7200;
};

object node {
	phases ABCN;
	name R1-12-47-3_node_43;
	voltage_B -3600-6235j;
	voltage_C -3600+6235j;
	voltage_A 7200+0.0j;
	nominal_voltage 7200;
};

object node {
	phases AN;
	nominal_voltage 7200;
	name R1-12-47-3_node_44;
	voltage_A 7200+0.0j;
};

object node {
	phases ABCN;
	name R1-12-47-3_node_45;
	voltage_B -3600-6235j;
	voltage_C -3600+6235j;
	voltage_A 7200+0.0j;
	nominal_voltage 7200;
};

object node {
	phases ABCN;
	name R1-12-47-3_node_46;
	voltage_B -3600-6235j;
	voltage_C -3600+6235j;
	voltage_A 7200+0.0j;
	nominal_voltage 7200;
};

object node {
	phases ABCN;
	name R1-12-47-3_node_47;
	voltage_B -3600-6235j;
	voltage_C -3600+6235j;
	voltage_A 7200+0.0j;
	nominal_voltage 7200;
};

object node {
	phases ABCN;
	name R1-12-47-3_node_48;
	voltage_B -3600-6235j;
	voltage_C -3600+6235j;
	voltage_A 7200+0.0j;
	nominal_voltage 7200;
};

object node {
	phases ABCN;
	name R1-12-47-3_node_49;
	voltage_B -3600-6235j;
	voltage_C -3600+6235j;
	voltage_A 7200+0.0j;
	nominal_voltage 7200;
};

object node {
	phases ABCN;
	name R1-12-47-3_node_50;
	voltage_B -3600-6235j;
	voltage_C -3600+6235j;
	voltage_A 7200+0.0j;
	nominal_voltage 7200;
};

object node {
	phases ABCN;
	name R1-12-47-3_node_51;
	voltage_B -3600-6235j;
	voltage_C -3600+6235j;
	voltage_A 7200+0.0j;
	nominal_voltage 7200;
};

object node {
	phases ABCN;
	name R1-12-47-3_node_52;
	parent R1-12-47-3_meter_22;
	voltage_B -3600-6235j;
	voltage_C -3600+6235j;
	voltage_A 7200+0.0j;
	nominal_voltage 7200;
};

object node {
	phases ABCN;
	name R1-12-47-3_node_53;
	bustype SWING;
	voltage_B -3600-6235j;
	voltage_C -3600+6235j;
	voltage_A 7200+0.0j;
	nominal_voltage 7200;
};

object overhead_line {
	phases ABCN;
	from R1-12-47-3_node_3;
	name R1-12-47-3_ol_1;
	to R1-12-47-3_node_4;
	length 387.401;
	configuration line_configuration_18;
};

object overhead_line {
	phases ACN;
	from R1-12-47-3_node_4;
	name R1-12-47-3_ol_2;
	to R1-12-47-3_node_5;
	length 68.936;
	configuration line_configuration_19;
};

object overhead_line {
	phases CN;
	from R1-12-47-3_node_4;
	name R1-12-47-3_ol_3;
	to R1-12-47-3_node_6;
	length 157.766;
	configuration line_configuration_20;
};

object overhead_line {
	phases ABCN;
	from R1-12-47-3_node_4;
	name R1-12-47-3_ol_4;
	to R1-12-47-3_node_7;
	length 139.494;
	configuration line_configuration_18;
};

object overhead_line {
	phases ABCN;
	from R1-12-47-3_node_7;
	name R1-12-47-3_ol_5;
	to R1-12-47-3_node_8;
	length 1260.546;
	configuration line_configuration_18;
};

object overhead_line {
	phases ABCN;
	from R1-12-47-3_node_8;
	name R1-12-47-3_ol_6;
	to R1-12-47-3_node_9;
	length 633.806;
	configuration line_configuration_18;
};

object overhead_line {
	phases ABCN;
	from R1-12-47-3_node_9;
	name R1-12-47-3_ol_7;
	to R1-12-47-3_node_10;
	length 237.576;
	configuration line_configuration_21;
};

object overhead_line {
	phases ACN;
	from R1-12-47-3_node_8;
	name R1-12-47-3_ol_8;
	to R1-12-47-3_node_11;
	length 749.489;
	configuration line_configuration_22;
};

object overhead_line {
	phases CN;
	from R1-12-47-3_node_11;
	name R1-12-47-3_ol_9;
	to R1-12-47-3_node_12;
	length 122.880;
	configuration line_configuration_23;
};

object overhead_line {
	phases ACN;
	from R1-12-47-3_node_11;
	name R1-12-47-3_ol_10;
	to R1-12-47-3_node_13;
	length 245.725;
	configuration line_configuration_19;
};

object overhead_line {
	phases CN;
	from R1-12-47-3_node_13;
	name R1-12-47-3_ol_11;
	to R1-12-47-3_node_14;
	length 275.331;
	configuration line_configuration_23;
};

object overhead_line {
	phases ABCN;
	from R1-12-47-3_node_8;
	name R1-12-47-3_ol_12;
	to R1-12-47-3_node_15;
	length 275.240;
	configuration line_configuration_18;
};

object overhead_line {
	phases ABCN;
	from R1-12-47-3_node_15;
	name R1-12-47-3_ol_13;
	to R1-12-47-3_node_16;
	length 63.897;
	configuration line_configuration_18;
};

object overhead_line {
	phases ABCN;
	from R1-12-47-3_node_17;
	name R1-12-47-3_ol_14;
	to R1-12-47-3_node_18;
	length 1499.769;
	configuration line_configuration_24;
};

object overhead_line {
	phases ABCN;
	from R1-12-47-3_node_18;
	name R1-12-47-3_ol_15;
	to R1-12-47-3_node_19;
	length 485.017;
	configuration line_configuration_24;
};

object overhead_line {
	phases ABCN;
	from R1-12-47-3_node_19;
	name R1-12-47-3_ol_16;
	to R1-12-47-3_node_21;
	length 275.614;
	configuration line_configuration_26;
};

object overhead_line {
	phases ABCN;
	from R1-12-47-3_node_21;
	name R1-12-47-3_ol_17;
	to R1-12-47-3_node_22;
	length 165.147;
	configuration line_configuration_27;
};

object overhead_line {
	phases BCN;
	from R1-12-47-3_node_25;
	name R1-12-47-3_ol_18;
	to R1-12-47-3_node_26;
	length 497.233;
	configuration line_configuration_30;
};

object overhead_line {
	phases ABCN;
	from R1-12-47-3_node_18;
	name R1-12-47-3_ol_19;
	to R1-12-47-3_node_27;
	length 734.441;
	configuration line_configuration_27;
};

object overhead_line {
	phases AN;
	from R1-12-47-3_node_28;
	name R1-12-47-3_ol_20;
	to R1-12-47-3_node_29;
	length 111.674;
	configuration line_configuration_32;
};

object overhead_line {
	phases AN;
	from R1-12-47-3_node_28;
	name R1-12-47-3_ol_21;
	to R1-12-47-3_node_30;
	length 174.016;
	configuration line_configuration_32;
};

object overhead_line {
	phases ABCN;
	from R1-12-47-3_node_27;
	name R1-12-47-3_ol_22;
	to R1-12-47-3_node_31;
	length 229.262;
	configuration line_configuration_27;
};

object overhead_line {
	phases ABCN;
	from R1-12-47-3_node_31;
	name R1-12-47-3_ol_23;
	to R1-12-47-3_node_32;
	length 234.203;
	configuration line_configuration_18;
};

object overhead_line {
	phases ABCN;
	from R1-12-47-3_node_32;
	name R1-12-47-3_ol_24;
	to R1-12-47-3_node_34;
	length 693.760;
	configuration line_configuration_18;
};

object overhead_line {
	phases ABCN;
	from R1-12-47-3_node_35;
	name R1-12-47-3_ol_25;
	to R1-12-47-3_node_36;
	length 277.512;
	configuration line_configuration_27;
};

object overhead_line {
	phases ABCN;
	from R1-12-47-3_node_35;
	name R1-12-47-3_ol_26;
	to R1-12-47-3_node_41;
	length 428.598;
	configuration line_configuration_21;
};

object overhead_line {
	phases ABCN;
	from R1-12-47-3_node_41;
	name R1-12-47-3_ol_27;
	to R1-12-47-3_node_42;
	length 208.252;
	configuration line_configuration_24;
};

object overhead_line {
	phases ABCN;
	from R1-12-47-3_node_41;
	name R1-12-47-3_ol_28;
	to R1-12-47-3_node_43;
	length 288.056;
	configuration line_configuration_24;
};

object overhead_line {
	phases AN;
	from R1-12-47-3_node_43;
	name R1-12-47-3_ol_29;
	to R1-12-47-3_node_44;
	length 127.857;
	configuration line_configuration_31;
};

object overhead_line {
	phases ABCN;
	from R1-12-47-3_node_43;
	name R1-12-47-3_ol_30;
	to R1-12-47-3_node_45;
	length 103.017;
	configuration line_configuration_27;
};

object overhead_line_conductor {
	geometric_mean_radius 0.00814 ft;
	resistance 0.56300;
	name overhead_line_conductor_3;
	rating.summer.continuous 334.0;
};

object overhead_line_conductor {
	geometric_mean_radius 0.00700 ft;
	resistance 2.40970;
	name overhead_line_conductor_4;
	rating.summer.continuous 120.0;
};

object overhead_line_conductor {
	geometric_mean_radius 0.00663 ft;
	resistance 1.50000;
	name overhead_line_conductor_5;
	rating.summer.continuous 149.0;
};

object overhead_line_conductor {
	geometric_mean_radius 0.00418 ft;
	resistance 1.62570;
	name overhead_line_conductor_6;
	rating.summer.continuous 180.0;
};

object overhead_line_conductor {
	geometric_mean_radius 0.01203 ft;
	resistance 0.95300;
	name overhead_line_conductor_7;
	rating.summer.continuous 230.0;
};

object switch {
	status CLOSED;
	phases ABCN;
	from R1-12-47-3_node_52;
	name R1-12-47-3_switch_1;
	to R1-12-47-3_node_2;
};

object switch {
	status CLOSED;
	phases ABCN;
	from R1-12-47-3_node_9;
	name R1-12-47-3_switch_2;
	to R1-12-47-3_node_51;
};

object switch {
	status CLOSED;
	phases ABCN;
	from R1-12-47-3_node_15;
	name R1-12-47-3_switch_3;
	to R1-12-47-3_node_49;
};

object switch {
	status CLOSED;
	phases ABCN;
	from R1-12-47-3_node_15;
	name R1-12-47-3_switch_4;
	to R1-12-47-3_node_17;
};

object switch {
	status CLOSED;
	phases ABCN;
	from R1-12-47-3_node_34;
	name R1-12-47-3_switch_5;
	to R1-12-47-3_node_1;
};

object switch {
	status CLOSED;
	phases ABCN;
	from R1-12-47-3_node_34;
	name R1-12-47-3_switch_6;
	to R1-12-47-3_node_50;
};

object transformer {
	phases BS;
	from R1-12-47-3_node_40;
	name R1-12-47-3_xfmr_1;
	to R1-12-47-3_tn_1;
	configuration transformer_configuration_132;
};

object transformer {
	phases CN;
	from R1-12-47-3_node_6;
	name R1-12-47-3_xfmr_2;
	to R1-12-47-3_meter_1;
	configuration transformer_configuration_134;
};

object transformer {
	phases ABCN;
	from R1-12-47-3_node_10;
	name R1-12-47-3_xfmr_3;
	to R1-12-47-3_meter_2;
	configuration transformer_configuration_135;
};

object transformer {
	phases ACN;
	from R1-12-47-3_node_11;
	name R1-12-47-3_xfmr_4;
	to R1-12-47-3_meter_3;
	configuration transformer_configuration_136;
};

object transformer {
	phases CN;
	from R1-12-47-3_node_12;
	name R1-12-47-3_xfmr_5;
	to R1-12-47-3_meter_4;
	configuration transformer_configuration_137;
};

object transformer {
	phases CN;
	from R1-12-47-3_node_14;
	name R1-12-47-3_xfmr_6;
	to R1-12-47-3_meter_5;
	configuration transformer_configuration_137;
};

object transformer {
	phases ABCN;
	from R1-12-47-3_node_18;
	name R1-12-47-3_xfmr_7;
	to R1-12-47-3_meter_6;
	configuration transformer_configuration_138;
};

object transformer {
	phases AN;
	from R1-12-47-3_node_20;
	name R1-12-47-3_xfmr_8;
	to R1-12-47-3_meter_7;
	configuration transformer_configuration_139;
};

object transformer {
	phases ABCN;
	from R1-12-47-3_node_22;
	name R1-12-47-3_xfmr_9;
	to R1-12-47-3_meter_8;
	configuration transformer_configuration_140;
};

object transformer {
	phases BN;
	from R1-12-47-3_node_24;
	name R1-12-47-3_xfmr_10;
	to R1-12-47-3_meter_9;
	configuration transformer_configuration_141;
};

object transformer {
	phases ABCN;
	from R1-12-47-3_node_27;
	name R1-12-47-3_xfmr_11;
	to R1-12-47-3_meter_10;
	configuration transformer_configuration_142;
};

object transformer {
	phases AN;
	from R1-12-47-3_node_28;
	name R1-12-47-3_xfmr_12;
	to R1-12-47-3_meter_11;
	configuration transformer_configuration_143;
};

object transformer {
	phases AN;
	from R1-12-47-3_node_29;
	name R1-12-47-3_xfmr_13;
	to R1-12-47-3_meter_12;
	configuration transformer_configuration_144;
};

object transformer {
	phases AN;
	from R1-12-47-3_node_30;
	name R1-12-47-3_xfmr_14;
	to R1-12-47-3_meter_13;
	configuration transformer_configuration_144;
};

object transformer {
	phases AN;
	from R1-12-47-3_node_33;
	name R1-12-47-3_xfmr_15;
	to R1-12-47-3_meter_14;
	configuration transformer_configuration_144;
};

object transformer {
	phases BN;
	from R1-12-47-3_node_37;
	name R1-12-47-3_xfmr_16;
	to R1-12-47-3_meter_15;
	configuration transformer_configuration_145;
};

object transformer {
	phases BN;
	from R1-12-47-3_node_38;
	name R1-12-47-3_xfmr_17;
	to R1-12-47-3_meter_16;
	configuration transformer_configuration_146;
};

object transformer {
	phases BN;
	from R1-12-47-3_node_39;
	name R1-12-47-3_xfmr_18;
	to R1-12-47-3_meter_17;
	configuration transformer_configuration_145;
};

object transformer {
	phases ABCN;
	from R1-12-47-3_node_42;
	name R1-12-47-3_xfmr_19;
	to R1-12-47-3_meter_18;
	configuration transformer_configuration_147;
};

object transformer {
	phases AN;
	from R1-12-47-3_node_44;
	name R1-12-47-3_xfmr_20;
	to R1-12-47-3_meter_19;
	configuration transformer_configuration_144;
};

object transformer {
	phases ABCN;
	from R1-12-47-3_node_47;
	name R1-12-47-3_xfmr_21;
	to R1-12-47-3_meter_20;
	configuration transformer_configuration_148;
};

object transformer {
	phases ABCN;
	from R1-12-47-3_node_48;
	name R1-12-47-3_xfmr_22;
	to R1-12-47-3_meter_21;
	configuration transformer_configuration_140;
};

object transformer_configuration {
	power_rating 450.0;
	primary_voltage 7200 V;
	install_type POLETOP;
	secondary_voltage 120 V;
	connect_type SINGLE_PHASE_CENTER_TAPPED;
	resistance 0.00033;
	reactance 0.00022;
	powerB_rating 450.0;
	name transformer_configuration_132;
};

object transformer_configuration {
	powerC_rating 50.0;
	power_rating 50.0;
	primary_voltage 12470.000 V;
	install_type PADMOUNT;
	secondary_voltage 480 V;
	connect_type WYE_WYE;
	resistance 0.00200;
	reactance 0.01000;
	name transformer_configuration_134;
};

object transformer_configuration {
	powerC_rating 15.0;
	power_rating 45.0;
	primary_voltage 12470.000 V;
	install_type PADMOUNT;
	secondary_voltage 480 V;
	connect_type WYE_WYE;
	resistance 0.00222;
	reactance 0.01111;
	powerB_rating 15.0;
	powerA_rating 15.0;
	name transformer_configuration_135;
};

object transformer_configuration {
	powerC_rating 25.0;
	power_rating 25.0;
	primary_voltage 12470.000 V;
	install_type POLETOP;
	secondary_voltage 480 V;
	connect_type WYE_WYE;
	resistance 0.00400;
	reactance 0.02000;
	powerA_rating 0.0;
	name transformer_configuration_136;
};

object transformer_configuration {
	powerC_rating 50.0;
	power_rating 50.0;
	primary_voltage 12470.000 V;
	install_type POLETOP;
	secondary_voltage 480 V;
	connect_type WYE_WYE;
	resistance 0.00200;
	reactance 0.01000;
	name transformer_configuration_137;
};

object transformer_configuration {
	powerC_rating 75.0;
	power_rating 75.0;
	primary_voltage 12470.000 V;
	install_type POLETOP;
	secondary_voltage 480 V;
	connect_type WYE_WYE;
	resistance 0.00133;
	reactance 0.00667;
	powerB_rating 0.0;
	powerA_rating 0.0;
	name transformer_configuration_138;
};

object transformer_configuration {
	power_rating 37.5;
	primary_voltage 12470.000 V;
	install_type POLETOP;
	secondary_voltage 480 V;
	connect_type WYE_WYE;
	resistance 0.00267;
	reactance 0.01333;
	powerA_rating 37.5;
	name transformer_configuration_139;
};

object transformer_configuration {
	powerC_rating 25.0;
	power_rating 75.0;
	primary_voltage 12470.000 V;
	install_type POLETOP;
	secondary_voltage 480 V;
	connect_type WYE_WYE;
	resistance 0.00133;
	reactance 0.00667;
	powerB_rating 25.0;
	powerA_rating 25.0;
	name transformer_configuration_140;
};

object transformer_configuration {
	power_rating 75.0;
	primary_voltage 12470.000 V;
	install_type POLETOP;
	secondary_voltage 480 V;
	connect_type WYE_WYE;
	resistance 0.00133;
	reactance 0.00667;
	powerB_rating 75.0;
	name transformer_configuration_141;
};

object transformer_configuration {
	powerC_rating 50.0;
	power_rating 75.0;
	primary_voltage 12470.000 V;
	install_type POLETOP;
	secondary_voltage 480 V;
	connect_type WYE_WYE;
	resistance 0.00133;
	reactance 0.00667;
	powerB_rating 25.0;
	powerA_rating 0.0;
	name transformer_configuration_142;
};

object transformer_configuration {
	power_rating 100.0;
	primary_voltage 12470.000 V;
	install_type POLETOP;
	secondary_voltage 480 V;
	connect_type WYE_WYE;
	resistance 0.00100;
	reactance 0.00500;
	powerA_rating 100.0;
	name transformer_configuration_143;
};

object transformer_configuration {
	power_rating 25.0;
	primary_voltage 12470.000 V;
	install_type POLETOP;
	secondary_voltage 480 V;
	connect_type WYE_WYE;
	resistance 0.00400;
	reactance 0.02000;
	powerA_rating 25.0;
	name transformer_configuration_144;
};

object transformer_configuration {
	power_rating 50.0;
	primary_voltage 12470.000 V;
	install_type POLETOP;
	secondary_voltage 480 V;
	connect_type WYE_WYE;
	resistance 0.00200;
	reactance 0.01000;
	powerB_rating 50.0;
	name transformer_configuration_145;
};

object transformer_configuration {
	power_rating 175.0;
	primary_voltage 12470.000 V;
	install_type POLETOP;
	secondary_voltage 480 V;
	connect_type WYE_WYE;
	resistance 0.00057;
	reactance 0.00286;
	powerB_rating 175.0;
	name transformer_configuration_146;
};

object transformer_configuration {
	powerC_rating 50.0;
	power_rating 150.0;
	primary_voltage 12470.000 V;
	install_type POLETOP;
	secondary_voltage 480 V;
	connect_type WYE_WYE;
	resistance 0.00067;
	reactance 0.00333;
	powerB_rating 50.0;
	powerA_rating 50.0;
	name transformer_configuration_147;
};

object transformer_configuration {
	powerC_rating 37.5;
	power_rating 112.5;
	primary_voltage 12470.000 V;
	install_type POLETOP;
	secondary_voltage 480 V;
	connect_type WYE_WYE;
	resistance 0.00089;
	reactance 0.00444;
	powerB_rating 37.5;
	powerA_rating 37.5;
	name transformer_configuration_148;
};

object triplex_line {
	phases BS;
	from R1-12-47-3_tn_1;
	name R1-12-47-3_tl_1;
	to R1-12-47-3_tm_1;
	length 30;
	configuration triplex_line_configuration_1;
};

object triplex_line_conductor {
	geometric_mean_radius 0.0111;
	resistance 0.97;
	name TLC 1/0 AA triplex;
};

object triplex_line_configuration {
	diameter 0.368;
	insulation_thickness 0.08;
	conductor_1 TLC 1/0 AA triplex;
	conductor_2 TLC 1/0 AA triplex;
	conductor_N TLC 1/0 AA triplex;
	name triplex_line_configuration_1;
};

object triplex_meter {
	voltage_2 -60-103.92j;
	phases BS;
	voltage_1 -60-103.92j;
	name R1-12-47-3_tm_1;
	nominal_voltage 120;
	voltage_N 0;
};

object triplex_node {
	voltage_2 -60-103.92j;
	phases BS;
	voltage_1 -60-103.92j;
	name R1-12-47-3_tn_1;
	nominal_voltage 120;
	voltage_N 0;
};

object triplex_node {
	voltage_2 -60-103.92j;
	phases BS;
	voltage_1 -60-103.92j;
	name R1-12-47-3_tn_2;
	parent R1-12-47-3_tm_1;
	power_1 175181.0364+5512.8881j;
	nominal_voltage 120;
	voltage_N 0;
};

object underground_line {
	phases ABCN;
	from R1-12-47-3_node_2;
	name R1-12-47-3_ul_1;
	to R1-12-47-3_node_3;
	length 84.593;
	configuration line_configuration_17;
};

object underground_line {
	phases BN;
	from R1-12-47-3_node_23;
	name R1-12-47-3_ul_2;
	to R1-12-47-3_node_24;
	length 160.451;
	configuration line_configuration_29;
};

object underground_line {
	phases BCN;
	from R1-12-47-3_node_23;
	name R1-12-47-3_ul_3;
	to R1-12-47-3_node_25;
	length 190.827;
	configuration line_configuration_28;
};

object underground_line {
	phases BN;
	from R1-12-47-3_node_37;
	name R1-12-47-3_ul_4;
	to R1-12-47-3_node_38;
	length 165.500;
	configuration line_configuration_29;
};

object underground_line {
	phases BN;
	from R1-12-47-3_node_37;
	name R1-12-47-3_ul_5;
	to R1-12-47-3_node_39;
	length 74.300;
	configuration line_configuration_29;
};

object underground_line {
	phases ABCN;
	from R1-12-47-3_node_45;
	name R1-12-47-3_ul_6;
	to R1-12-47-3_node_46;
	length 202.409;
	configuration line_configuration_33;
};

object underground_line {
	phases ABCN;
	from R1-12-47-3_node_46;
	name R1-12-47-3_ul_7;
	to R1-12-47-3_node_47;
	length 131.003;
	configuration line_configuration_33;
};

object underground_line {
	phases ABCN;
	from R1-12-47-3_node_46;
	name R1-12-47-3_ul_8;
	to R1-12-47-3_node_48;
	length 258.143;
	configuration line_configuration_33;
};

object underground_line_conductor {
	conductor_gmr 0.0371 ft;
	conductor_resistance 0.091872;
	shield_resistance 0.00;
	neutral_gmr 0.0842565914341201 ft;
	outer_diameter 2.15;
	neutral_strands 20.0;
	neutral_resistance 5.3856;
	rating.summer.continuous 488.0;
	neutral_diameter 0.1019;
	conductor_diameter 1.152;
	shield_gmr 0.00;
	name underground_line_conductor_2;
};

object underground_line_conductor {
	conductor_gmr 0.01142 ft;
	conductor_resistance 0.88704;
	shield_resistance 0.00;
	neutral_gmr 0.0489686771417213 ft;
	outer_diameter 1.27;
	neutral_strands 16.0;
	neutral_resistance 13.86528;
	rating.summer.continuous 142.0;
	neutral_diameter 0.0641;
	conductor_diameter 0.362;
	shield_gmr 0.00;
	name underground_line_conductor_8;
};

module residential;
module generators;
module market;
module climate;
module tape;
module powerflow;
#include "superSchedules.glm";
class player {
	double value;
};
module market;
class auction {
	double my_avg ; double my_std;
};
object player {
	name cppDays;
	file superCpp.player;
};

object auction {
	my_std 0.037953;
	name Market_1;
object player {
	file superClearingPrice.player;
	property current_market.clearing_price;
	loop 10;
};
	period 900;
	my_avg 0.110000;
	special_mode BUYERS_ONLY;
	unit kW;
};

object climate {
	name "CA-San_francisco";
	interpolate QUADRATIC;
	tmyfile "superClimate.tmy2";
};

object triplex_meter {
	parent R1-12-47-3_tn_1;
	phases BS;
	name house1_triplexMeter;
	meter_power_consumption 2+11j;
	power_market Market_1;
	monthly_fee 10.00;
	bill_day 1;
	bill_mode HOURLY;
	nominal_voltage 120;
	groupid Residential_Meter;
};

object house {
	glass_type 2;
	cooling_COP 3.8;
	hvac_breaker_rating 1000;
	cooling_system_type NONE;
	total_thermal_mass_per_floor_area 3.504;
	cooling_setpoint cooling6*2.89+69.19;
	air_temperature 71.22;
	Rdoors 10.51;
	heating_system_type GAS;
	glazing_layers 3;
	glazing_treatment 2;
	heating_setpoint heating6*0.19+59.01;
	groupid Residential;
	schedule_skew 1083;
	window_frame 4;
	parent house1_triplexMeter;
	floor_area 3907;
	mass_temperature 71.22;
	number_of_stories 1;
	Rwall 27.33;
	name house1;
	Rfloor 35.59;
	airchange_per_hour 0.23;
	Rroof 50.34;
	ceiling_height 8;
	breaker_amps 1000;
	over_sizing_factor 0.1;
};

object ZIPload {
	parent house1;
	schedule_skew 1083;
	name house1_unresponsiveLoad;
	power_fraction 0.400000;
	current_fraction 0.400000;
	base_power unresponsive_loads*1.19;
	impedance_pf 1.000;
	current_pf 1.000;
	power_pf 1.000;
	impedance_fraction 0.200000;
	heatgain_fraction 0.900;
};

object ZIPload {
	parent house1;
	schedule_skew 1083;
	name house1_responsiveLoad;
	power_fraction 0.400000;
	current_fraction 0.400000;
	base_power responsive_loads*1.30;
	impedance_pf 1.000;
	current_pf 1.000;
	power_pf 1.000;
	impedance_fraction 0.200000;
	heatgain_fraction 0.900;
};

object passive_controller {
	period 900;
	old_first_tier_price 0.124300;
	second_tier_price 0.139973;
	sub_elasticity_first_third -0.0145;
	parent house1_responsiveLoad;
	third_tier_hours 6;
	critical_day cppDays.value;
	third_tier_price 0.699867;
	second_tier_hours 12;
	sub_elasticity_first_second -0.0099;
	linearize_elasticity true;
	old_second_tier_price 0.124300;
	daily_elasticity daily_elasticity_wotech*0.1305;
	state_property multiplier;
	first_tier_hours 12;
	observation_property past_market.clearing_price;
	control_mode ELASTICITY_MODEL;
	name house1_responsiveLoad_controller;
	price_offset 0.01;
	two_tier_cpp true;
	observation_object Market_1;
	first_tier_price 0.069987;
	old_third_tier_price 0.124300;
};

object waterheater {
	schedule_skew 4326;
	demand large_6*0.99;
	name house1_waterHeater;
	parent house1;
	heating_element_capacity 4.5 kW;
	thermostat_deadband 7.8;
	location INSIDE;
	tank_volume 50;
	tank_setpoint 132.7;
	tank_UA 3.7;
	temperature 132;
};

object passive_controller {
	name house1_waterHeater_controller;
	parent house1_waterHeater;
	period 900;
	comfort_level 0.82;
	distribution_type NORMAL;
	expectation_object Market_1;
	observation_object Market_1;
	state_property override;
	control_mode PROBABILITY_OFF;
	expectation_property my_avg;
	observation_property past_market.clearing_price;
	stdev_observation_property my_std;
};

object evcharger_det {
	variation_trip_std_dev 100.0;
	parent house1;
	arrival_at_home 1800;
	duration_at_work 9 h;
	variation_trip_mean 300.0;
	name house1_ev;
	maximum_charge_rate 1700;
	duration_at_home 14 h;
	work_charging_available false;
	travel_distance 15.0;
	mileage_classification 33.0;
	charging_efficiency 0.90;
	arrival_at_work 900;
	variation_std_dev 100.0;
	mileage_efficiency 3.846;
	variation_mean 300.0;
};

object inverter {
	name house1_solarInverter;
	parent house1_triplexMeter;
	generator_status ONLINE;
	inverter_type PWM;
	generator_mode CONSTANT_PF;
};

object solar {
	name house1_solar;
	parent house1_solarInverter;
	area 800 sf;
	generator_status ONLINE;
	efficiency 0.13;
	generator_mode SUPPLY_DRIVEN;
	panel_type SINGLE_CRYSTAL_SILICON;
};

object inverter {
	discharge_off_threshold 7454 kW;
	phases BS;
	four_quadrant_control_mode LOAD_FOLLOWING;
	name house1_batteryInverter;
	parent house1_triplexMeter;
	generator_status ONLINE;
	inverter_type FOUR_QUADRANT;
	sense_object house1_triplexMeter;
	max_charge_rate 220 kW;
	charge_off_threshold 6148 kW;
	discharge_lockout_time 60;
	generator_mode CONSTANT_PQ;
	rated_power 220 kW;
	charge_lockout_time 60;
	max_discharge_rate 220 kW;
	inverter_efficiency 0.9;
	discharge_on_threshold 7915 kW;
	charge_on_threshold 5123 kW;
};

object battery {
	state_of_charge 1.0;
	battery_state FULL;
	name house1_battery;
	parent house1_batteryInverter;
	round_trip_efficiency 0.85;
	generator_status ONLINE;
	battery_type LI_ION;
	generator_mode SUPPLY_DRIVEN;
	battery_capacity 880 kWh;
	use_internal_battery_model TRUE;
};

